/*--------------------------------*- C++ -*----------------------------------*\
  =========                 |
  \\      /  F ield         | OpenFOAM: The Open Source CFD Toolbox
   \\    /   O peration     | Website:  https://openfoam.org
    \\  /    A nd           | Version:  dev
     \\/     M anipulation  |
\*---------------------------------------------------------------------------*/
FoamFile
{
    version     2.0;
    format      ascii;
    class       dictionary;
    object      meshQualityDict;
}
// * * * * * * * * * * * * * * * * * * * * * * * * * * * * * * * * * * * * * //

// Include defaults parameters from master dictionary
#includeEtc "caseDicts/mesh/generation/meshQualityDict"

//- minFaceWeight (0 -> 0.5)
minFaceWeight 0.01;


// For layer addition
minDeterminant 	 -1e30;
minTetQuality    -1e30;
minVol            1e-16;
minVolRatio       1e-4;
minTwist 0.01;
minTriangleTwist -1;
minArea -1;

// ************************************************************************* //
